Circuit: *Step response of the system:-

Fatal Error: Run: Missing node(s).
